<?xml version="1.0" encoding="UTF-8"?>
<configuration xmlns:xsi="http://www.w3.org/2001/XMLSchema-instance" 
               xsi:noNamespaceSchemaLocation="http://sumo.dlr.de/xsd/sumoConfiguration.xsd">
    
    <input>
        <net-file value="network.net.xml"/>
        <route-files value="routes.rou.xml"/>
    </input>
    
    <time>
        <begin value="0"/>
        <end value="200"/>
    </time>
    
    <gui_only>
        <delay value="100"/>
    </gui_only>
    
</configuration>