<?xml version="1.0" encoding="UTF-8"?>
<net version="1.20" junctionCornerDetail="5" limitTurnSpeed="5.50" 
     xmlns:xsi="http://www.w3.org/2001/XMLSchema-instance" 
     xsi:noNamespaceSchemaLocation="http://sumo.dlr.de/xsd/net_file.xsd">

    <location netOffset="100.00,50.00" convBoundary="0.00,0.00,500.00,100.00" 
               origBoundary="-100.00,-50.00,400.00,50.00" projParameter="!"/>

    <!-- Keep all your existing edges and junctions, but ensure they're properly connected -->
    
</net>