<?xml version="1.0" encoding="UTF-8"?>

<!-- generated on 2025-10-23 19:34:37 by Eclipse SUMO netconvert Version 1.24.0
<netconvertConfiguration xmlns:xsi="http://www.w3.org/2001/XMLSchema-instance" xsi:noNamespaceSchemaLocation="http://sumo.dlr.de/xsd/netconvertConfiguration.xsd">

    <input>
        <node-files value="nodes.nod.xml"/>
        <edge-files value="edges.edg.xml"/>
    </input>

    <output>
        <output-file value="network.net.xml"/>
    </output>

</netconvertConfiguration>
-->

<net version="1.20" junctionCornerDetail="5" limitTurnSpeed="5.50" xmlns:xsi="http://www.w3.org/2001/XMLSchema-instance" xsi:noNamespaceSchemaLocation="http://sumo.dlr.de/xsd/net_file.xsd">

    <location netOffset="100.00,50.00" convBoundary="0.00,0.00,500.00,100.00" origBoundary="-100.00,-50.00,400.00,50.00" projParameter="!"/>

    <edge id=":A_0" function="internal">
        <lane id=":A_0_0" index="0" speed="10.00" length="11.20" shape="98.40,54.00 98.40,42.80"/>
    </edge>
    <edge id=":A_1" function="internal">
        <lane id=":A_1_0" index="0" speed="7.33" length="2.51" shape="98.40,54.00 98.95,51.55"/>
    </edge>
    <edge id=":A_2" function="internal">
        <lane id=":A_2_0" index="0" speed="3.65" length="1.44" shape="98.40,54.00 99.20,52.80"/>
    </edge>
    <edge id=":A_9" function="internal">
        <lane id=":A_9_0" index="0" speed="7.33" length="9.21" shape="98.95,51.55 100.60,49.80 103.35,48.75 107.20,48.40"/>
    </edge>
    <edge id=":A_10" function="internal">
        <lane id=":A_10_0" index="0" speed="3.65" length="3.23" shape="99.20,52.80 100.00,52.40 100.80,52.80 101.60,54.00"/>
    </edge>
    <edge id=":A_3" function="internal">
        <lane id=":A_3_0" index="0" speed="6.51" length="9.03" shape="101.60,42.80 101.95,45.25 103.00,47.00 104.75,48.05 107.20,48.40"/>
    </edge>
    <edge id=":A_4" function="internal">
        <lane id=":A_4_0" index="0" speed="10.00" length="11.20" shape="101.60,42.80 101.60,54.00"/>
    </edge>
    <edge id=":A_5" function="internal">
        <lane id=":A_5_0" index="0" speed="3.65" length="1.44" shape="101.60,42.80 100.80,44.00"/>
    </edge>
    <edge id=":A_11" function="internal">
        <lane id=":A_11_0" index="0" speed="3.65" length="3.23" shape="100.80,44.00 100.00,44.40 99.20,44.00 98.40,42.80"/>
    </edge>
    <edge id=":A_6" function="internal">
        <lane id=":A_6_0" index="0" speed="6.51" length="9.03" shape="92.80,48.40 95.25,48.05 97.00,47.00 98.05,45.25 98.40,42.80"/>
    </edge>
    <edge id=":A_7" function="internal">
        <lane id=":A_7_0" index="0" speed="13.90" length="14.40" shape="92.80,48.40 107.20,48.40"/>
    </edge>
    <edge id=":A_8" function="internal">
        <lane id=":A_8_0" index="0" speed="7.33" length="11.73" shape="92.80,48.40 96.65,48.75 99.40,49.80 101.05,51.55 101.60,54.00"/>
    </edge>
    <edge id=":B_0" function="internal">
        <lane id=":B_0_0" index="0" speed="10.00" length="11.20" shape="348.40,54.00 348.40,42.80"/>
    </edge>
    <edge id=":B_1" function="internal">
        <lane id=":B_1_0" index="0" speed="7.33" length="2.51" shape="348.40,54.00 348.95,51.55"/>
    </edge>
    <edge id=":B_2" function="internal">
        <lane id=":B_2_0" index="0" speed="3.65" length="1.44" shape="348.40,54.00 349.20,52.80"/>
    </edge>
    <edge id=":B_9" function="internal">
        <lane id=":B_9_0" index="0" speed="7.33" length="9.21" shape="348.95,51.55 350.60,49.80 353.35,48.75 357.20,48.40"/>
    </edge>
    <edge id=":B_10" function="internal">
        <lane id=":B_10_0" index="0" speed="3.65" length="3.23" shape="349.20,52.80 350.00,52.40 350.80,52.80 351.60,54.00"/>
    </edge>
    <edge id=":B_3" function="internal">
        <lane id=":B_3_0" index="0" speed="6.51" length="9.03" shape="351.60,42.80 351.95,45.25 353.00,47.00 354.75,48.05 357.20,48.40"/>
    </edge>
    <edge id=":B_4" function="internal">
        <lane id=":B_4_0" index="0" speed="10.00" length="11.20" shape="351.60,42.80 351.60,54.00"/>
    </edge>
    <edge id=":B_5" function="internal">
        <lane id=":B_5_0" index="0" speed="3.65" length="1.44" shape="351.60,42.80 350.80,44.00"/>
    </edge>
    <edge id=":B_11" function="internal">
        <lane id=":B_11_0" index="0" speed="3.65" length="3.23" shape="350.80,44.00 350.00,44.40 349.20,44.00 348.40,42.80"/>
    </edge>
    <edge id=":B_6" function="internal">
        <lane id=":B_6_0" index="0" speed="6.51" length="9.03" shape="342.80,48.40 345.25,48.05 347.00,47.00 348.05,45.25 348.40,42.80"/>
    </edge>
    <edge id=":B_7" function="internal">
        <lane id=":B_7_0" index="0" speed="13.90" length="14.40" shape="342.80,48.40 357.20,48.40"/>
    </edge>
    <edge id=":B_8" function="internal">
        <lane id=":B_8_0" index="0" speed="7.33" length="11.73" shape="342.80,48.40 346.65,48.75 349.40,49.80 351.05,51.55 351.60,54.00"/>
    </edge>
    <edge id=":northA_0" function="internal">
        <lane id=":northA_0_0" index="0" speed="3.65" length="4.67" shape="101.60,100.00 100.80,101.20 100.00,101.60 99.20,101.20 98.40,100.00"/>
    </edge>
    <edge id=":northB_0" function="internal">
        <lane id=":northB_0_0" index="0" speed="3.65" length="4.67" shape="351.60,100.00 350.80,101.20 350.00,101.60 349.20,101.20 348.40,100.00"/>
    </edge>
    <edge id=":southA_0" function="internal">
        <lane id=":southA_0_0" index="0" speed="3.65" length="4.67" shape="98.40,0.00 99.20,-1.20 100.00,-1.60 100.80,-1.20 101.60,0.00"/>
    </edge>
    <edge id=":southB_0" function="internal">
        <lane id=":southB_0_0" index="0" speed="3.65" length="4.67" shape="348.40,0.00 349.20,-1.20 350.00,-1.60 350.80,-1.20 351.60,0.00"/>
    </edge>

    <edge id="A_to_B" from="A" to="B" priority="-1">
        <lane id="A_to_B_0" index="0" speed="13.90" length="235.60" shape="107.20,48.40 342.80,48.40"/>
    </edge>
    <edge id="A_to_northA" from="A" to="northA" priority="-1">
        <lane id="A_to_northA_0" index="0" speed="10.00" length="46.00" shape="101.60,54.00 101.60,100.00"/>
    </edge>
    <edge id="A_to_southA" from="A" to="southA" priority="-1">
        <lane id="A_to_southA_0" index="0" speed="10.00" length="42.80" shape="98.40,42.80 98.40,0.00"/>
    </edge>
    <edge id="B_to_east2" from="B" to="east2" priority="-1">
        <lane id="B_to_east2_0" index="0" speed="13.90" length="142.80" shape="357.20,48.40 500.00,48.40"/>
    </edge>
    <edge id="B_to_northB" from="B" to="northB" priority="-1">
        <lane id="B_to_northB_0" index="0" speed="10.00" length="46.00" shape="351.60,54.00 351.60,100.00"/>
    </edge>
    <edge id="B_to_southB" from="B" to="southB" priority="-1">
        <lane id="B_to_southB_0" index="0" speed="10.00" length="42.80" shape="348.40,42.80 348.40,0.00"/>
    </edge>
    <edge id="northA_in" from="northA" to="A" priority="-1">
        <lane id="northA_in_0" index="0" speed="10.00" length="46.00" shape="98.40,100.00 98.40,54.00"/>
    </edge>
    <edge id="northB_in" from="northB" to="B" priority="-1">
        <lane id="northB_in_0" index="0" speed="10.00" length="46.00" shape="348.40,100.00 348.40,54.00"/>
    </edge>
    <edge id="southA_in" from="southA" to="A" priority="-1">
        <lane id="southA_in_0" index="0" speed="10.00" length="42.80" shape="101.60,0.00 101.60,42.80"/>
    </edge>
    <edge id="southB_in" from="southB" to="B" priority="-1">
        <lane id="southB_in_0" index="0" speed="10.00" length="42.80" shape="351.60,0.00 351.60,42.80"/>
    </edge>
    <edge id="west_in" from="west" to="A" priority="-1">
        <lane id="west_in_0" index="0" speed="13.90" length="92.80" shape="0.00,48.40 92.80,48.40"/>
    </edge>

    <tlLogic id="A" type="static" programID="0" offset="0">
        <phase duration="42" state="GggGGgrrr"/>
        <phase duration="3"  state="yyyyyyrrr"/>
        <phase duration="42" state="rrrrrrGGG"/>
        <phase duration="3"  state="rrrrrryyy"/>
    </tlLogic>
    <tlLogic id="B" type="static" programID="0" offset="0">
        <phase duration="42" state="GggGGgrrr"/>
        <phase duration="3"  state="yyyyyyrrr"/>
        <phase duration="42" state="rrrrrrGGG"/>
        <phase duration="3"  state="rrrrrryyy"/>
    </tlLogic>

    <junction id="A" type="traffic_light" x="100.00" y="50.00" incLanes="northA_in_0 southA_in_0 west_in_0" intLanes=":A_0_0 :A_9_0 :A_10_0 :A_3_0 :A_4_0 :A_11_0 :A_6_0 :A_7_0 :A_8_0" shape="96.80,54.00 103.20,54.00 103.64,51.78 104.20,51.00 104.98,50.44 105.98,50.11 107.20,50.00 107.20,46.80 104.98,46.36 104.20,45.80 103.64,45.02 103.31,44.02 103.20,42.80 96.80,42.80 96.36,45.02 95.80,45.80 95.02,46.36 94.02,46.69 92.80,46.80 92.80,50.00 95.02,50.44 95.80,51.00 96.36,51.78 96.69,52.78">
        <request index="0" response="111000000" foes="111100000" cont="0"/>
        <request index="1" response="110011000" foes="110011000" cont="1"/>
        <request index="2" response="100010000" foes="100010000" cont="1"/>
        <request index="3" response="010000000" foes="010000010" cont="0"/>
        <request index="4" response="110000000" foes="110000110" cont="0"/>
        <request index="5" response="001000001" foes="001000001" cont="1"/>
        <request index="6" response="000000000" foes="000100001" cont="0"/>
        <request index="7" response="000000010" foes="000011011" cont="0"/>
        <request index="8" response="000000010" foes="000010111" cont="0"/>
    </junction>
    <junction id="B" type="traffic_light" x="350.00" y="50.00" incLanes="northB_in_0 southB_in_0 A_to_B_0" intLanes=":B_0_0 :B_9_0 :B_10_0 :B_3_0 :B_4_0 :B_11_0 :B_6_0 :B_7_0 :B_8_0" shape="346.80,54.00 353.20,54.00 353.64,51.78 354.20,51.00 354.98,50.44 355.98,50.11 357.20,50.00 357.20,46.80 354.98,46.36 354.20,45.80 353.64,45.02 353.31,44.02 353.20,42.80 346.80,42.80 346.36,45.02 345.80,45.80 345.02,46.36 344.02,46.69 342.80,46.80 342.80,50.00 345.02,50.44 345.80,51.00 346.36,51.78 346.69,52.78">
        <request index="0" response="111000000" foes="111100000" cont="0"/>
        <request index="1" response="110011000" foes="110011000" cont="1"/>
        <request index="2" response="100010000" foes="100010000" cont="1"/>
        <request index="3" response="010000000" foes="010000010" cont="0"/>
        <request index="4" response="110000000" foes="110000110" cont="0"/>
        <request index="5" response="001000001" foes="001000001" cont="1"/>
        <request index="6" response="000000000" foes="000100001" cont="0"/>
        <request index="7" response="000000010" foes="000011011" cont="0"/>
        <request index="8" response="000000010" foes="000010111" cont="0"/>
    </junction>
    <junction id="east2" type="dead_end" x="500.00" y="50.00" incLanes="B_to_east2_0" intLanes="" shape="500.00,46.80 500.00,50.00"/>
    <junction id="northA" type="priority" x="100.00" y="100.00" incLanes="A_to_northA_0" intLanes=":northA_0_0" shape="100.00,100.00 103.20,100.00 100.00,100.00">
        <request index="0" response="0" foes="0" cont="0"/>
    </junction>
    <junction id="northB" type="priority" x="350.00" y="100.00" incLanes="B_to_northB_0" intLanes=":northB_0_0" shape="350.00,100.00 353.20,100.00 350.00,100.00">
        <request index="0" response="0" foes="0" cont="0"/>
    </junction>
    <junction id="southA" type="priority" x="100.00" y="0.00" incLanes="A_to_southA_0" intLanes=":southA_0_0" shape="100.00,0.00 96.80,0.00 100.00,0.00">
        <request index="0" response="0" foes="0" cont="0"/>
    </junction>
    <junction id="southB" type="priority" x="350.00" y="0.00" incLanes="B_to_southB_0" intLanes=":southB_0_0" shape="350.00,0.00 346.80,0.00 350.00,0.00">
        <request index="0" response="0" foes="0" cont="0"/>
    </junction>
    <junction id="west" type="dead_end" x="0.00" y="50.00" incLanes="" intLanes="" shape="0.00,50.00 0.00,46.80"/>

    <junction id=":A_9_0" type="internal" x="98.95" y="51.55" incLanes=":A_1_0 southA_in_0" intLanes=":A_3_0 :A_4_0 :A_7_0 :A_8_0"/>
    <junction id=":A_10_0" type="internal" x="99.20" y="52.80" incLanes=":A_2_0 southA_in_0 west_in_0" intLanes=":A_4_0 :A_8_0"/>
    <junction id=":A_11_0" type="internal" x="100.80" y="44.00" incLanes=":A_5_0 northA_in_0 west_in_0" intLanes=":A_0_0 :A_6_0"/>
    <junction id=":B_9_0" type="internal" x="348.95" y="51.55" incLanes=":B_1_0 southB_in_0" intLanes=":B_3_0 :B_4_0 :B_7_0 :B_8_0"/>
    <junction id=":B_10_0" type="internal" x="349.20" y="52.80" incLanes=":B_2_0 A_to_B_0 southB_in_0" intLanes=":B_4_0 :B_8_0"/>
    <junction id=":B_11_0" type="internal" x="350.80" y="44.00" incLanes=":B_5_0 A_to_B_0 northB_in_0" intLanes=":B_0_0 :B_6_0"/>

    <connection from="A_to_B" to="B_to_southB" fromLane="0" toLane="0" via=":B_6_0" tl="B" linkIndex="6" dir="r" state="O"/>
    <connection from="A_to_B" to="B_to_east2" fromLane="0" toLane="0" via=":B_7_0" tl="B" linkIndex="7" dir="s" state="O"/>
    <connection from="A_to_B" to="B_to_northB" fromLane="0" toLane="0" via=":B_8_0" tl="B" linkIndex="8" dir="l" state="O"/>
    <connection from="A_to_northA" to="northA_in" fromLane="0" toLane="0" via=":northA_0_0" dir="t" state="M"/>
    <connection from="A_to_southA" to="southA_in" fromLane="0" toLane="0" via=":southA_0_0" dir="t" state="M"/>
    <connection from="B_to_northB" to="northB_in" fromLane="0" toLane="0" via=":northB_0_0" dir="t" state="M"/>
    <connection from="B_to_southB" to="southB_in" fromLane="0" toLane="0" via=":southB_0_0" dir="t" state="M"/>
    <connection from="northA_in" to="A_to_southA" fromLane="0" toLane="0" via=":A_0_0" tl="A" linkIndex="0" dir="s" state="o"/>
    <connection from="northA_in" to="A_to_B" fromLane="0" toLane="0" via=":A_1_0" tl="A" linkIndex="1" dir="l" state="o"/>
    <connection from="northA_in" to="A_to_northA" fromLane="0" toLane="0" via=":A_2_0" tl="A" linkIndex="2" dir="t" state="o"/>
    <connection from="northB_in" to="B_to_southB" fromLane="0" toLane="0" via=":B_0_0" tl="B" linkIndex="0" dir="s" state="o"/>
    <connection from="northB_in" to="B_to_east2" fromLane="0" toLane="0" via=":B_1_0" tl="B" linkIndex="1" dir="l" state="o"/>
    <connection from="northB_in" to="B_to_northB" fromLane="0" toLane="0" via=":B_2_0" tl="B" linkIndex="2" dir="t" state="o"/>
    <connection from="southA_in" to="A_to_B" fromLane="0" toLane="0" via=":A_3_0" tl="A" linkIndex="3" dir="r" state="o"/>
    <connection from="southA_in" to="A_to_northA" fromLane="0" toLane="0" via=":A_4_0" tl="A" linkIndex="4" dir="s" state="o"/>
    <connection from="southA_in" to="A_to_southA" fromLane="0" toLane="0" via=":A_5_0" tl="A" linkIndex="5" dir="t" state="o"/>
    <connection from="southB_in" to="B_to_east2" fromLane="0" toLane="0" via=":B_3_0" tl="B" linkIndex="3" dir="r" state="o"/>
    <connection from="southB_in" to="B_to_northB" fromLane="0" toLane="0" via=":B_4_0" tl="B" linkIndex="4" dir="s" state="o"/>
    <connection from="southB_in" to="B_to_southB" fromLane="0" toLane="0" via=":B_5_0" tl="B" linkIndex="5" dir="t" state="o"/>
    <connection from="west_in" to="A_to_southA" fromLane="0" toLane="0" via=":A_6_0" tl="A" linkIndex="6" dir="r" state="O"/>
    <connection from="west_in" to="A_to_B" fromLane="0" toLane="0" via=":A_7_0" tl="A" linkIndex="7" dir="s" state="O"/>
    <connection from="west_in" to="A_to_northA" fromLane="0" toLane="0" via=":A_8_0" tl="A" linkIndex="8" dir="l" state="O"/>

    <connection from=":A_0" to="A_to_southA" fromLane="0" toLane="0" dir="s" state="M"/>
    <connection from=":A_1" to="A_to_B" fromLane="0" toLane="0" via=":A_9_0" dir="l" state="m"/>
    <connection from=":A_9" to="A_to_B" fromLane="0" toLane="0" dir="l" state="M"/>
    <connection from=":A_2" to="A_to_northA" fromLane="0" toLane="0" via=":A_10_0" dir="t" state="m"/>
    <connection from=":A_10" to="A_to_northA" fromLane="0" toLane="0" dir="t" state="M"/>
    <connection from=":A_3" to="A_to_B" fromLane="0" toLane="0" dir="r" state="M"/>
    <connection from=":A_4" to="A_to_northA" fromLane="0" toLane="0" dir="s" state="M"/>
    <connection from=":A_5" to="A_to_southA" fromLane="0" toLane="0" via=":A_11_0" dir="t" state="m"/>
    <connection from=":A_11" to="A_to_southA" fromLane="0" toLane="0" dir="t" state="M"/>
    <connection from=":A_6" to="A_to_southA" fromLane="0" toLane="0" dir="r" state="M"/>
    <connection from=":A_7" to="A_to_B" fromLane="0" toLane="0" dir="s" state="M"/>
    <connection from=":A_8" to="A_to_northA" fromLane="0" toLane="0" dir="l" state="M"/>
    <connection from=":B_0" to="B_to_southB" fromLane="0" toLane="0" dir="s" state="M"/>
    <connection from=":B_1" to="B_to_east2" fromLane="0" toLane="0" via=":B_9_0" dir="l" state="m"/>
    <connection from=":B_9" to="B_to_east2" fromLane="0" toLane="0" dir="l" state="M"/>
    <connection from=":B_2" to="B_to_northB" fromLane="0" toLane="0" via=":B_10_0" dir="t" state="m"/>
    <connection from=":B_10" to="B_to_northB" fromLane="0" toLane="0" dir="t" state="M"/>
    <connection from=":B_3" to="B_to_east2" fromLane="0" toLane="0" dir="r" state="M"/>
    <connection from=":B_4" to="B_to_northB" fromLane="0" toLane="0" dir="s" state="M"/>
    <connection from=":B_5" to="B_to_southB" fromLane="0" toLane="0" via=":B_11_0" dir="t" state="m"/>
    <connection from=":B_11" to="B_to_southB" fromLane="0" toLane="0" dir="t" state="M"/>
    <connection from=":B_6" to="B_to_southB" fromLane="0" toLane="0" dir="r" state="M"/>
    <connection from=":B_7" to="B_to_east2" fromLane="0" toLane="0" dir="s" state="M"/>
    <connection from=":B_8" to="B_to_northB" fromLane="0" toLane="0" dir="l" state="M"/>
    <connection from=":northA_0" to="northA_in" fromLane="0" toLane="0" dir="t" state="M"/>
    <connection from=":northB_0" to="northB_in" fromLane="0" toLane="0" dir="t" state="M"/>
    <connection from=":southA_0" to="southA_in" fromLane="0" toLane="0" dir="t" state="M"/>
    <connection from=":southB_0" to="southB_in" fromLane="0" toLane="0" dir="t" state="M"/>

</net>
