<nodes>
<node id="west" x="-100" y="0" type="priority"/>
<node id="A" x="0" y="0" type="traffic_light"/>
<node id="B" x="250" y="0" type="traffic_light"/>
<node id="east2" x="400" y="0" type="priority"/>
<node id="northA" x="0" y="50" type="priority"/>
<node id="southA" x="0" y="-50" type="priority"/>
<node id="northB" x="250" y="50" type="priority"/>
<node id="southB" x="250" y="-50" type="priority"/>
</nodes>