<?xml version="1.0" encoding="UTF-8"?>
<edges>
    <!-- Main corridor -->
    <edge id="west_in" from="west" to="A" numLanes="1" speed="13.9"/>
    <edge id="A_to_B" from="A" to="B" numLanes="1" speed="13.9"/>
    <edge id="B_to_east" from="B" to="east" numLanes="1" speed="13.9"/>

    <!-- Side connections for A -->
    <edge id="northA_in" from="northA" to="A" numLanes="1" speed="10"/>
    <edge id="A_to_northA" from="A" to="northA" numLanes="1" speed="10"/>
    <edge id="southA_in" from="southA" to="A" numLanes="1" speed="10"/>
    <edge id="A_to_southA" from="A" to="southA" numLanes="1" speed="10"/>

    <!-- Side connections for B -->
    <edge id="northB_in" from="northB" to="B" numLanes="1" speed="10"/>
    <edge id="B_to_northB" from="B" to="northB" numLanes="1" speed="10"/>
    <edge id="southB_in" from="southB" to="B" numLanes="1" speed="10"/>
    <edge id="B_to_southB" from="B" to="southB" numLanes="1" speed="10"/>
</edges>